/batch
/config,noeldb,1     ! force off writing results to database
*get,_wallstrt,active,,time,wall
! ANSYS input file written by Workbench version 2024 R1
! File used for geometry attach: C:\Users\brend\Desktop\Engine-Development\Ansys Models\Rotor\[TP] [Turb] Rotor40.STEP
/title,Rotor FEA--Static Structural (J5)
! ****** Begin Custom Load Command Snippet ******
/COM, ACT Extensions:
/COM,     LSDYNA, 2024.1
/COM,     5f463412-bd3e-484b-87e7-cbc0a665e474, wbex
/COM,/COM,     ANSYSMotion, 2024.1
/COM,     20180725-3f81-49eb-9f31-41364844c769, wbex
/COM,
! ****** End   Custom Load Command Snippet ******
*DIM,_wb_ProjectScratch_dir,string,248
_wb_ProjectScratch_dir(1) = 'C:\Users\brend\Desktop\Engine-Development\Ansys Models\Rotor\_ProjectScratch\Scr5F79\'
*DIM,_wb_SolverFiles_dir,string,248
_wb_SolverFiles_dir(1) = 'C:\Users\brend\Desktop\Engine-Development\Ansys Models\Rotor\Rotor FEA_files\dp0\SYS-9\MECH\'
*DIM,_wb_userfiles_dir,string,248
_wb_userfiles_dir(1) = 'C:\Users\brend\Desktop\Engine-Development\Ansys Models\Rotor\Rotor FEA_files\user_files\'
/com,--- Data in consistent BIN units. See Solving Units in the help system for more information.
/units,BIN
/nopr
/wb,file,start              !  signify a WB generated input file
/prep7
! Turn off shape checking because checks already performed inside WB mesher.
! See help system for more information.
SHPP,OFF,,NOWARN
/nolist
etcon,set             ! allow ANSYS to choose best KEYOP's for 180x elements, resets any applicable keyopt to MAPDL defaults
/com,*********** Nodes for the whole assembly ***********
nblock,3,,19039
(1i9,3e20.9e3)
        1     2.876905507E-16     1.250000000E-01     3.509000000E+00
        2    -1.420380111E-16     1.250000000E-01    -3.509000000E+00
        3     3.038883142E+00     1.250000000E-01     1.754500000E+00
        4     3.038883142E+00     1.250000000E-01    -1.754500000E+00
        5     2.876905507E-16    -1.250000000E-01     3.509000000E+00
        6    -1.420380111E-16    -1.250000000E-01    -3.509000000E+00
        7     3.038883142E+00    -1.250000000E-01     1.754500000E+00
        8     3.038883142E+00    -1.250000000E-01    -1.754500000E+00
        9     2.284267254E+00     2.918824261E-16     5.199279860E-01
       10     2.347087278E+00     2.214486853E-01     2.854804652E-01
       11     2.308000178E+00     1.388215501E-01     4.313555108E-01
       12     3.290597214E+00     6.043295492E-16     7.895732861E-01
       13     3.307088870E+00     1.250000000E-01     7.173696441E-01
       14     3.349941728E+00     2.500000000E-01     4.789012649E-01
       15     2.851463021E+00     2.500000000E-01     3.453342980E-01
       16     2.196860811E+00     2.758261229E-16     8.136366368E-01
       17     2.289744943E+00     2.214486853E-01     5.893945055E-01
       18     2.231951724E+00     1.388215501E-01     7.289196794E-01
       19     3.159385704E+00     5.802263859E-16     1.212327502E+00
       20     3.185160738E+00     1.250000000E-01     1.142894165E+00
! ... 17290 like lines cut
/com,*********** Nodes for all Remote Points ***********
nblock,3
(1i9,3e20.9e3)
    17310    -2.334247875E+00    -1.748382716E-17     1.363841544E+00
-1
/wb,elem,start            !  set before creation of elements
/com,*********** Elements for Body 1 "[TP] [Turb] Rotor40-FreeParts|Boss-Extrude1" ***********
et,1,187
eblock,19,solid,,7822
(19i9)
        1        1        1        1        0        0        0        0       10        0        1     2591     3146     3044     3107    16395    17218    16393    16394
    17260    17215
        1        1        1        1        0        0        0        0       10        0        2       58     2591     3146     3044     3683    16395     3690     3688
    16393    17218
        1        1        1        1        0        0        0        0       10        0        3       58     3146     2603     3044     3690    16429     3686     3688
    17218    16427
        1        1        1        1        0        0        0        0       10        0        4       58     3146       60     2603     3690     3707     3680     3686
    16429     3703
        1        1        1        1        0        0        0        0       10        0        5     2591     2593     3146     3107    16391    16403    16395    16394
    16402    17260
        1        1        1        1        0        0        0        0       10        0        6       58     2593     3146     2591     3685    16403     3690     3683
    16391    16395
        1        1        1        1        0        0        0        0       10        0        7       58     2593       60     3146     3685     3702     3680     3690
    16403     3707
        1        1        1        1        0        0        0        0       10        0        8     1775     2909     1777     3145    14122    14129    14121    14123
    16922    14130
        1        1        1        1        0        0        0        0       10        0        9     1777     2907     3145     2909    14128    16917    14130    14129
    16913    16922
        1        1        1        1        0        0        0        0       10        0       10     1776     2907     3145     1777    14125    16917    14127    14124
    14128    14130
! ... 15625 like lines cut
!Material Id = {C7C3F814-3CA2-4596-89FA-9D5A96DF140E}
/wb,elem,end               !  done creating elements
/com,*********** Send User Defined Coordinate System(s) ***********
csys,0
toffst,459.67,  ! Temperature offset from absolute zero
/com,*********** Set Reference Temperature ***********
tref,71.6
/wb,mat,start              !  starting to send materials
/com,*********** Send Materials ***********
MP,DENS,1,0.000711151356163667,	! slinch in^-3
MP,EX,1,19348034.2110633,	! slinch s^-2 in^-1
MP,NUXY,1,0.26,
MP,UVID,1,c7223613-b6ec-4910-9d28-259751ae9953

/wb,mat,end                !  done sending materials
!************************* Model Summary ********************
![TP] [Turb] Rotor40-FreeParts|Boss-Extrude1,	SS 304 (760 C),	matid,	1
!************************* End Model Summary ********************
! get the diagonal of the bounding box. Needed later for other things
*get,_xmin,node,,mnloc,x
*get,_ymin,node,,mnloc,y
*get,_zmin,node,,mnloc,z
*get,_xmax,node,,mxloc,x
*get,_ymax,node,,mxloc,y
*get,_zmax,node,,mxloc,z
_ASMDIAG=(_xmax-_xmin)*(_xmax-_xmin)+(_ymax-_ymin)*(_ymax-_ymin)+(_zmax-_zmin)*(_zmax-_zmin)
_ASMDIAG=SQRT(_ASMDIAG)
/wb,contact,start          !  starting to send contact
/wb,contact,end            !  done creating contacts
/golist
/wb,load,start             !  starting to send loads
/com,*********** Fixed Supports ***********
CMBLOCK,_FIXEDSU,NODE,       52
(8i10)
       405       406       407       408       409       410       411       412
       623       624       625       626      1703      1704      2952      2953
      6718      6719      6720      6725      6726      6727      6731      6732
      6733      6737      6738      6739      6745      6746      6747      6751
      6752      6753      6756      6757      6758      6762      6763      7995
      7996      7997      8002      8003      8004      8008      8009      8010
      8014      8015     13925     13929
cmsel,s,_FIXEDSU
d,all,all
nsel,all
/com,*********** Define Rotational Velocity ***********
cglo,0.,0.,0.
/gst,on,on
fini
*get,_numnode,node,0,count
*get,_numelem,elem,0,count
*get, _MAXELEMNUM, elem, 0, NUM, MAX
*get, _MAXNODENUM, node, 0, NUM, MAX
*get, _MAXELEMTYPE, etyp, 0, NUM, MAX
*get, _MAXREALCONST, rcon, 0, NUM, MAX
/go
/wb,load,end               !  done creating loads
/com,--- Number of total nodes = %_numnode%
/com,--- Number of contact elements = 0
/com,--- Number of spring elements = 0
/com,--- Number of bearing elements = 0
/com,--- Number of solid elements = 7822
/com,--- Number of condensed parts = 0
/com,--- Number of total elements = %_numelem%
*get,_wallbsol,active,,time,wall
/com,****************************************************************************
/com,*************************    SOLUTION       ********************************
/com,****************************************************************************
/solu
antype,0                   ! static analysis
_thickRatio=  0     ! Ratio of thick parts in the model
eqsl,sparse,,,,,1
cntr,print,1               ! print out contact info and also make no initial contact an error
cncheck,dmp		!	Enable program controlled contact splitting for distributed memory parallel run
dmpoption,emat,no             ! Don't combine emat file for DANSYS
dmpoption,esav,no             ! Don't combine esav file for DANSYS
nldiag,cont,iter           ! print out contact info each equilibrium iteration
rescontrol,,none                 ! Do not keep any restart files
/com,****************************************************
/com,******************* SOLVE FOR LS 1 OF 1 ****************
cgom,0.,-4451.,0.
/nopr
/gopr
nsub,1,1,1
time,1.
outres,erase
outres,all,none
outres,nsol,all,
outres,rsol,all
outres,eangl,all
outres,etmp,all
outres,veng,all
outres,strs,all,
outres,epel,all,
outres,eppl,all,
outres,cont,all,
! *********** WB SOLVE COMMAND ***********
! check interactive state
*get,ANSINTER_,active,,int
*if,ANSINTER_,ne,0,then
/eof
*endif
solve
/com *************** Write FE CONNECTORS ********* 
CEWRITE,file,ce,,INTE
/com,****************************************************
/com,*************** FINISHED SOLVE FOR LS 1 *************
*get,_wallasol,active,,time,wall
/nopr
*get,_numnode,node,0,count
*get,_numelem,elem,0,count
*get, _MAXELEMNUM, elem, 0, NUM, MAX
*get, _MAXNODENUM, node, 0, NUM, MAX,,,INTERNAL
*get, _MAXELEMTYPE, etyp, 0, NUM, MAX
*get, _MAXREALCONST, rcon, 0, NUM, MAX
*get,_NSOLTHREADS,active,0,ntfs
*get,_NSOLPROCESSES,active,0,npfs
/gopr
/post1
xmlo,ENCODING,ISO-8859-1
xmlo,parm
/xml,parm,xml
fini
/gopr
*get,_walldone,active,,time,wall
_preptime=(_wallbsol-_wallstrt)*3600
_solvtime=(_wallasol-_wallbsol)*3600
_posttime=(_walldone-_wallasol)*3600
_totaltim=(_walldone-_wallstrt)*3600
*get,_dlbratio,active,0,solu,dlbr
*get,_combtime,active,0,solu,comb
*get,_ssmode,active,0,solu,ssmm
*get,_ndofs,active,0,solu,ndof
*get,_sol_end_time,active,0,set,time
*if,_sol_end_time,eq,1.000000,then
/fclean				!clean distributed files
*endif
/com,--- Total number of nodes = %_numnode%
/com,--- Total number of elements = %_numelem%
/com,--- Element load balance ratio = %_dlbratio%
/com,--- Time to combine distributed files = %_combtime%
/com,--- Sparse memory mode = %_ssmode%
/com,--- Number of DOF = %_ndofs%
/wb,file,end               ! done with WB generated input
