/batch
/config,noeldb,1     ! force off writing results to database
*get,_wallstrt,active,,time,wall
! ANSYS input file written by Workbench version 2024 R1
! File used for geometry attach: C:\Users\brend\Desktop\Engine-Development\Solidworks Model\Sample Rotor 2.STEP
/title,Rotor FEA--Static Structural (B5)
! ****** Begin Custom Load Command Snippet ******
/COM, ACT Extensions:
/COM,     LSDYNA, 2024.1
/COM,     5f463412-bd3e-484b-87e7-cbc0a665e474, wbex
/COM,/COM,     ANSYSMotion, 2024.1
/COM,     20180725-3f81-49eb-9f31-41364844c769, wbex
/COM,
! ****** End   Custom Load Command Snippet ******
*DIM,_wb_ProjectScratch_dir,string,248
_wb_ProjectScratch_dir(1) = 'C:\Users\brend\Desktop\Engine-Development\Ansys Models\Rotor\_ProjectScratch\Scr49EE\'
*DIM,_wb_SolverFiles_dir,string,248
_wb_SolverFiles_dir(1) = 'C:\Users\brend\Desktop\Engine-Development\Ansys Models\Rotor\Rotor FEA_files\dp0\SYS-1\MECH\'
*DIM,_wb_userfiles_dir,string,248
_wb_userfiles_dir(1) = 'C:\Users\brend\Desktop\Engine-Development\Ansys Models\Rotor\Rotor FEA_files\user_files\'
/com,--- Data in consistent BIN units. See Solving Units in the help system for more information.
/units,BIN
/nopr
/wb,file,start              !  signify a WB generated input file
/prep7
! Turn off shape checking because checks already performed inside WB mesher.
! See help system for more information.
SHPP,OFF,,NOWARN
/nolist
etcon,set             ! allow ANSYS to choose best KEYOP's for 180x elements, resets any applicable keyopt to MAPDL defaults
/com,*********** Nodes for the whole assembly ***********
nblock,3,,19786
(1i9,3e20.9e3)
        1    -1.429664376E-01     4.687500000E-01     2.863590421E-01
        2    -1.429664376E-01     3.125000000E-01     2.863590421E-01
        3    -1.429664376E-01     1.562500000E-01     2.863590421E-01
        4     1.844957943E+00     4.687500000E-01    -8.195969273E-01
        5     1.844957943E+00     3.125000000E-01    -8.195969273E-01
        6     1.844957943E+00     1.562500000E-01    -8.195969273E-01
        7     1.766860112E+00     4.687500000E-01    -7.814468118E-01
        8     1.766860112E+00     3.125000000E-01    -7.814468118E-01
        9     1.766860112E+00     1.562500000E-01    -7.814468118E-01
       10     1.647932630E+00     4.687500000E-01     2.075330868E-01
       11     1.647932630E+00     3.125000000E-01     2.075330868E-01
       12     1.647932630E+00     1.562500000E-01     2.075330868E-01
       13     1.677588418E+00     4.687500000E-01     1.193593793E-01
       14     1.677588418E+00     3.125000000E-01     1.193593793E-01
       15     1.677588418E+00     1.562500000E-01     1.193593793E-01
       16     1.800317262E+00     4.687500000E-01     2.092663800E-01
       17     1.800317262E+00     3.125000000E-01     2.092663800E-01
       18     1.800317262E+00     1.562500000E-01     2.092663800E-01
       19     1.796096415E+00     4.687500000E-01     8.788517636E-02
       20     1.796096415E+00     3.125000000E-01     8.788517636E-02
! ... 17969 like lines cut
/wb,elem,start            !  set before creation of elements
/com,*********** Elements for Body 1 "Sample Rotor 2-FreeParts|CirPattern1" ***********
et,1,186
keyo,1,2,1          ! set full integration on SOLID186
eblock,19,solid,,3320
(19i9)
        1        1        1        1        0        0        0        0       20        0        1        1      613      568     3476     2468     2264     2279     3475
     4887     7180     7183     4890    12237    12235    12260    12501     4889     7361     7182    14780
        1        1        1        1        0        0        0        0       20        0        2        1     3476      568      613        2     3477      569      614
     4890     7183     7180     4887     4894     7188     7186     4892     4886    14782     7178     7358
        1        1        1        1        0        0        0        0       20        0        3        2     3477      569      614        3     3478      570      615
     4894     7188     7186     4892     4898     7193     7190     4895     4891    14784     7184     7362
        1        1        1        1        0        0        0        0       20        0        4        3     3478      570      615     2469     3440     2658     2673
     4898     7193     7190     4895    12504    13017    13015    12502     4897    14693     7192     7367
        1        1        1        1        0        0        0        0       20        0        5      568     1534     3868     3476     2279     1957     3875     3475
     7181    10661    14783     7183    11595    11597    14781    12260     7182    10660    15847    14780
        1        1        1        1        0        0        0        0       20        0        6      568     3476     3868     1534      569     3477     3871     1535
     7183    14783    10661     7181     7188    14785    10663     7187     7178    14782    15846    10659
        1        1        1        1        0        0        0        0       20        0        7      569     3477     3871     1535      570     3478     3874     1536
     7188    14785    10663     7187     7193    14786    10665     7191     7184    14784    15852    10662
        1        1        1        1        0        0        0        0       20        0        8      570     3478     3874     1536     2658     3440     3338     2980
     7193    14786    10665     7191    13017    14486    13745    13016     7192    14693    14487    10664
        1        1        1        1        0        0        0        0       20        0        9        1     3476     3462     1537     2468     3475     3474     1956
     4890    14756    10669     4888    12501    14779    11593    11592     4889    14780    14755    10668
        1        1        1        1        0        0        0        0       20        0       10        1     1537     3462     3476        2     1538     3465     3477
     4888    10669    14756     4890     4893    10672    14765     4894     4886    10666    14754    14782
! ... 6621 like lines cut
!Material Id = {DEABB8FE-BFD3-45B2-AB1E-E1CAC66C2508}
/wb,elem,end               !  done creating elements
/com,*********** Send User Defined Coordinate System(s) ***********
csys,0
toffst,459.67,  ! Temperature offset from absolute zero
/com,*********** Set Reference Temperature ***********
tref,71.6
/wb,mat,start              !  starting to send materials
/com,*********** Send Materials ***********
MP,DENS,1,0.000711151356163667,	! slinch in^-3
MP,EX,1,19348034.2110633,	! slinch s^-2 in^-1
MP,NUXY,1,0.26,
MP,UVID,1,c7223613-b6ec-4910-9d28-259751ae9953

/wb,mat,end                !  done sending materials
!************************* Model Summary ********************
!Sample Rotor 2-FreeParts|CirPattern1,	SS 304 (760 C),	matid,	1
!************************* End Model Summary ********************
! get the diagonal of the bounding box. Needed later for other things
*get,_xmin,node,,mnloc,x
*get,_ymin,node,,mnloc,y
*get,_zmin,node,,mnloc,z
*get,_xmax,node,,mxloc,x
*get,_ymax,node,,mxloc,y
*get,_zmax,node,,mxloc,z
_ASMDIAG=(_xmax-_xmin)*(_xmax-_xmin)+(_ymax-_ymin)*(_ymax-_ymin)+(_zmax-_zmin)*(_zmax-_zmin)
_ASMDIAG=SQRT(_ASMDIAG)
/wb,contact,start          !  starting to send contact
/wb,contact,end            !  done creating contacts
/golist
/wb,load,start             !  starting to send loads
/com,*********** Fixed Supports ***********
CMBLOCK,_FIXEDSU,NODE,      112
(8i10)
      3338      3339      3340      3437      3438      3439      3440      3441
      3462      3463      3464      3465      3466      3467      3468      3469
      3470      3471      3472      3473      3474      3475      3476      3477
      3478      3479      3480      3481      3866      3867      3868      3869
      3870      3871      3872      3873      3874      3875      3876      3877
     14485     14486     14487     14488     14489     14490     14491     14686
     14687     14688     14689     14690     14691     14692     14693     14694
     14753     14754     14755     14756     14757     14758     14759     14760
     14761     14762     14763     14764     14765     14766     14767     14768
     14769     14770     14771     14772     14773     14774     14775     14776
     14777     14778     14779     14780     14781     14782     14783     14784
     14785     14786     14787     14788     14789     14790     14791     15840
     15841     15842     15843     15844     15845     15846     15847     15848
     15849     15850     15851     15852     15853     15854     15855     15856

cmsel,s,_FIXEDSU
d,all,all
nsel,all
/com,*********** Define Rotational Velocity ***********
esel,none
esel,a,type,,1
cm,cm_rotvelcity33,elem
esel,all
/gst,on,on
fini
*get,_numnode,node,0,count
*get,_numelem,elem,0,count
*get, _MAXELEMNUM, elem, 0, NUM, MAX
*get, _MAXNODENUM, node, 0, NUM, MAX
*get, _MAXELEMTYPE, etyp, 0, NUM, MAX
*get, _MAXREALCONST, rcon, 0, NUM, MAX
/go
/wb,load,end               !  done creating loads
/com,--- Number of total nodes = %_numnode%
/com,--- Number of contact elements = 0
/com,--- Number of spring elements = 0
/com,--- Number of bearing elements = 0
/com,--- Number of solid elements = 3320
/com,--- Number of condensed parts = 0
/com,--- Number of total elements = %_numelem%
*get,_wallbsol,active,,time,wall
/com,****************************************************************************
/com,*************************    SOLUTION       ********************************
/com,****************************************************************************
/solu
antype,0                   ! static analysis
_thickRatio=  1     ! Ratio of thick parts in the model
eqsl,pcg,1e-8,,,,,,1
cntr,print,1               ! print out contact info and also make no initial contact an error
cncheck,dmp		!	Enable program controlled contact splitting for distributed memory parallel run
dmpoption,emat,no             ! Don't combine emat file for DANSYS
dmpoption,esav,no             ! Don't combine esav file for DANSYS
nldiag,cont,iter           ! print out contact info each equilibrium iteration
rescontrol,,none                 ! Do not keep any restart files
/com,****************************************************
/com,******************* SOLVE FOR LS 1 OF 1 ****************
cmom,cm_rotvelcity33,0.,-3142.,0.,0.000000,0.312500,0.000000
/nopr
/gopr
nsub,1,1,1
time,1.
outres,erase
outres,all,none
outres,nsol,all,
outres,rsol,all
outres,eangl,all
outres,etmp,all
outres,veng,all
outres,strs,all,
outres,epel,all,
outres,eppl,all,
outres,cont,all,
! *********** WB SOLVE COMMAND ***********
! check interactive state
*get,ANSINTER_,active,,int
*if,ANSINTER_,ne,0,then
/eof
*endif
solve
/com *************** Write FE CONNECTORS ********* 
CEWRITE,file,ce,,INTE
/com,****************************************************
/com,*************** FINISHED SOLVE FOR LS 1 *************
*get,_wallasol,active,,time,wall
/nopr
*get,_numnode,node,0,count
*get,_numelem,elem,0,count
*get, _MAXELEMNUM, elem, 0, NUM, MAX
*get, _MAXNODENUM, node, 0, NUM, MAX,,,INTERNAL
*get, _MAXELEMTYPE, etyp, 0, NUM, MAX
*get, _MAXREALCONST, rcon, 0, NUM, MAX
*get,_NSOLTHREADS,active,0,ntfs
*get,_NSOLPROCESSES,active,0,npfs
/gopr
*get,_PCGITER,active,,solu,cgiter
/post1
xmlo,ENCODING,ISO-8859-1
xmlo,parm
/xml,parm,xml
fini
/gopr
*get,_walldone,active,,time,wall
_preptime=(_wallbsol-_wallstrt)*3600
_solvtime=(_wallasol-_wallbsol)*3600
_posttime=(_walldone-_wallasol)*3600
_totaltim=(_walldone-_wallstrt)*3600
*get,_dlbratio,active,0,solu,dlbr
*get,_combtime,active,0,solu,comb
*get,_ssmode,active,0,solu,ssmm
*get,_ndofs,active,0,solu,ndof
*get,_sol_end_time,active,0,set,time
*if,_sol_end_time,eq,1.000000,then
/fclean				!clean distributed files
*endif
/com,--- Total number of nodes = %_numnode%
/com,--- Total number of elements = %_numelem%
/com,--- Element load balance ratio = %_dlbratio%
/com,--- Time to combine distributed files = %_combtime%
/com,--- Sparse memory mode = %_ssmode%
/com,--- Number of DOF = %_ndofs%
/wb,file,end               ! done with WB generated input
